parallel/peak_load/40pc/TNB_DUMA_VLN.Txt

SYMMETRICAL COMPONENT VOLTAGES BY BUS (for 3-phase buses)

Bus               Mag:   V1 (kV)    p.u.     V2 (kV)   %V2/V1    V0 (kV)    %V0/V1

ppu_duma_33kv        19.01      0.998  9.269E-009  4.875E-008 1.239E-009 6.518E-009
ppu_duma_11kv        6.209     0.9777  3.228E-009  5.198E-008 4.064E-011 6.545E-010
rpplngi2              6.24     0.9825  3.242E-009  5.195E-008 4.17E-011 6.683E-010
pdtjlnmasjid         6.263     0.9861  3.252E-009  5.193E-008 4.267E-011 6.813E-010
bella                6.278     0.9886  3.259E-009  5.191E-008 4.339E-011 6.912E-010
pstpdgn              6.286     0.9898  3.263E-009  5.19E-008 4.378E-011 6.964E-010
pamdra               6.214     0.9785  3.23E-009  5.198E-008 4.067E-011 6.545E-010
duma4                6.231     0.9811  3.238E-009  5.196E-008 4.403E-011 7.066E-010
plsdra               6.266     0.9866  3.254E-009  5.193E-008 6.334E-011 1.011E-009
ssu_uptwres_ir1      6.269     0.9871  3.255E-009  5.193E-008 6.371E-011 1.016E-009
atria_1              6.269     0.9872  3.255E-009  5.192E-008 4.175E-011 6.66E-010
hawker               6.279     0.9887  3.259E-009  5.191E-008 5.421E-011 8.634E-010
prmte                6.216     0.9788  3.231E-009  5.198E-008 5.81E-011 9.347E-010
prmta                6.219     0.9792  3.232E-009  5.198E-008 5.845E-011  9.4E-010
pmontb               6.223     0.9799  3.234E-009  5.197E-008 6.092E-011 9.789E-010
duma7                6.224       0.98  3.235E-009  5.197E-008 4.118E-011 6.617E-010
haus                 6.262     0.9861  3.252E-009  5.193E-008 6.356E-011 1.015E-009
duma6                6.369      1.003  3.302E-009  5.184E-008 1.81E-010 2.842E-009
duma13               6.471      1.019  3.348E-009  5.175E-008 3.04E-010 4.698E-009
ssu_duma5_im2        6.481      1.021  3.353E-009  5.174E-008 3.054E-010 4.712E-009
plngi_b              6.237     0.9821  3.24E-009  5.195E-008 4.079E-011 6.541E-010
plngi_d              6.253     0.9847  3.248E-009  5.194E-008 4.087E-011 6.535E-010
pdtlitrak            6.323     0.9956  3.28E-009  5.187E-008 4.333E-011 6.853E-010
duma12               6.369      1.003  3.301E-009  5.183E-008 4.501E-011 7.067E-010
tmngh4               6.415       1.01  3.322E-009  5.179E-008 6.843E-011 1.067E-009
ssu_tmegah3_ir1      6.434      1.013  3.331E-009  5.177E-008 8.113E-011 1.261E-009
tmngh2               6.441      1.014  3.334E-009  5.177E-008 8.663E-011 1.345E-009
sprk9                6.267     0.9867  3.254E-009  5.192E-008 4.362E-011 6.961E-010
bomba                6.271     0.9874  3.256E-009  5.192E-008 4.525E-011 7.216E-010
sprk8                6.281     0.9891  3.261E-009  5.191E-008 5.064E-011 8.062E-010
ssu_uptwres_im2      6.221     0.9796  3.233E-009  5.197E-008 4.467E-011 7.181E-010
maybank              6.247     0.9837  3.245E-009  5.194E-008 4.561E-011  7.3E-010
duma8                6.252     0.9845  3.247E-009  5.194E-008 4.712E-011 7.537E-010
ssu_dsarcntr_ir1     6.224     0.9801  3.235E-009  5.197E-008 4.066E-011 6.532E-010
duma9                6.275      0.988  3.257E-009  5.191E-008 4.241E-011 6.758E-010
duma1                6.302     0.9922  3.27E-009  5.188E-008 4.338E-011 6.884E-010
elite                6.311     0.9938  3.274E-009  5.187E-008 4.376E-011 6.934E-010
duma10               6.269     0.9871  3.255E-009  5.192E-008 4.141E-011 6.606E-010
balaipolis           6.269     0.9872  3.255E-009  5.192E-008 4.142E-011 6.607E-010
ppu_duma_vcb1            0          0          0          0         0         0
